Circuit: * Z:\Documents\workspace\hardware\FlexModules\sensors\ECGADCBuffer\notched\sims\ECGACTNTCHLPBFR.asc

WARNING: Less than two connections to node U1:VB_2_VREF.  This node is used by E:U1:58.
Instance "m:u1:_nmos1": Length shorter than recommended for a level 1 MOSFET.
Instance "m:u1:_nmos1": Width narrower than recommended for a level 1 MOSFET.
Instance "m:u1:_nmos2": Length shorter than recommended for a level 1 MOSFET.
Instance "m:u1:_nmos2": Width narrower than recommended for a level 1 MOSFET.
Direct Newton iteration failed to find .op point.  (Use ".option noopiter" to skip.)
Starting Gmin stepping
Gmin = 10
vernier = 0.5
vernier = 0.25
Gmin = 2.62144
vernier = 0.125
vernier = 0.0625
vernier = 0.03125
Gmin = 2.35552
vernier = 0.015625
vernier = 0.0078125
vernier = 0.00390625
vernier = 0.00195313
Gmin = 2.36583
vernier = 0.000976563
vernier = 0.000488281
Gmin = 0
Gmin stepping failed

Starting source stepping with srcstepmethod=0
Source Step = 3.0303%
Source Step = 33.3333%
Source Step = 63.6364%
Source Step = 93.9394%
Source stepping succeeded in finding the operating point.


Date: Mon Jan 05 22:18:35 2015
Total elapsed time: 5.709 seconds.

tnom = 27
temp = 27
method = modified trap
totiter = 242738
traniter = 240931
tranpoints = 60721
accept = 42938
rejected = 17783
matrix size = 106
fillins = 129
solver = Normal
Thread vector: 34.6/14.7[2] 3.1/2.7[2] 13.0/8.9[2] 0.9/1.4[1]  2592/500
Matrix Compiler1: 11.0 KB object code size  2.9/1.4/[0.9]
Matrix Compiler2: 9.44 KB object code size  2.5/2.1/[1.4]


