Circuit: * Z:\Documents\workspace\hardware\FlexModules\sensors\ECGADCBuffer\notched\sims\ECGACTNTCHLPBFR.asc

WARNING: Less than two connections to node U1:VB_2_VREF.  This node is used by E:U1:58.
Instance "m:u1:_nmos1": Length shorter than recommended for a level 1 MOSFET.
Instance "m:u1:_nmos1": Width narrower than recommended for a level 1 MOSFET.
Instance "m:u1:_nmos2": Length shorter than recommended for a level 1 MOSFET.
Instance "m:u1:_nmos2": Width narrower than recommended for a level 1 MOSFET.
Direct Newton iteration failed to find .op point.  (Use ".option noopiter" to skip.)
Starting Gmin stepping
Gmin = 10
vernier = 0.5
vernier = 0.25
Gmin = 2.62144
vernier = 0.125
vernier = 0.0625
vernier = 0.03125
Gmin = 2.35552
vernier = 0.015625
vernier = 0.0078125
vernier = 0.00390625
vernier = 0.00195313
Gmin = 2.36583
vernier = 0.000976563
vernier = 0.000488281
Gmin = 0
Gmin stepping failed

Starting source stepping with srcstepmethod=0
Source Step = 3.0303%
Source Step = 33.3333%
Source Step = 63.6364%
Source Step = 86.3636%
Source Step = 88.0682%
Source Step = 89.9621%
Source Step = 91.8561%
Source Step = 93.75%
Source Step = 95.6439%
vernier = 0.09375
Source Step = 98.2955%
Source stepping succeeded in finding the operating point.


Date: Mon Jan 05 01:58:16 2015
Total elapsed time: 60.015 seconds.

tnom = 27
temp = 27
method = modified trap
totiter = 3552460
traniter = 3550182
tranpoints = 1225066
accept = 825019
rejected = 400047
matrix size = 106
fillins = 108
solver = Normal
Thread vector: 20.9/12.9[2] 2.6/2.2[2] 2.7/1.7[2] 0.7/2.8[1]  2592/500
Matrix Compiler1: 9.47 KB object code size  2.2/1.1/[0.8]
Matrix Compiler2: 9.05 KB object code size  3.0/2.0/[0.8]


