Circuit: * \\psf\Home\Documents\workspace\hardware\FlexModules\ECGADCBuffer\Rarray\sims\ECGADCBuffer.asc

WARNING: Less than two connections to node U1:VB_2_VREF.  This node is used by E:U1:58.
Instance "m:u1:_nmos1": Length shorter than recommended for a level 1 MOSFET.
Instance "m:u1:_nmos1": Width narrower than recommended for a level 1 MOSFET.
Instance "m:u1:_nmos2": Length shorter than recommended for a level 1 MOSFET.
Instance "m:u1:_nmos2": Width narrower than recommended for a level 1 MOSFET.
Direct Newton iteration failed to find .op point.  (Use ".option noopiter" to skip.)
Starting Gmin stepping
Gmin = 10
vernier = 0.5
vernier = 0.25
Gmin = 2.62144
vernier = 0.125
vernier = 0.0625
vernier = 0.03125
Gmin = 2.35552
vernier = 0.015625
vernier = 0.0078125
vernier = 0.00390625
vernier = 0.00195313
Gmin = 2.36583
vernier = 0.000976563
vernier = 0.000488281
Gmin = 0
Gmin stepping failed

Starting source stepping with srcstepmethod=0
Source Step = 3.0303%
Source Step = 33.3333%
Source Step = 63.6364%
Source Step = 93.9394%
Source stepping succeeded in finding the operating point.


Date: Sun Aug 10 17:50:58 2014
Total elapsed time: 0.405 seconds.

tnom = 27
temp = 27
method = modified trap
totiter = 12034
traniter = 10340
tranpoints = 5021
accept = 5021
rejected = 0
matrix size = 103
fillins = 99
solver = Normal
Thread vector: 12.9/7.5[2] 2.2/1.6[2] 3.4/2.2[2] 0.6/64.9[1]  2592/500
Matrix Compiler1: 8.49 KB object code size  2.3/1.1/[0.7]
Matrix Compiler2: 8.61 KB object code size  1.3/3.1/[1.0]


